Version 4
SHEET 1 880 680
WIRE 16 -96 -128 -96
WIRE 160 -96 16 -96
WIRE 16 -80 16 -96
WIRE 16 16 16 -16
WIRE 160 64 160 -96
WIRE -128 96 -128 -96
WIRE 16 112 16 96
WIRE 96 112 16 112
WIRE 16 128 16 112
WIRE 160 176 160 160
WIRE 160 224 160 208
WIRE -128 288 -128 176
WIRE 16 288 16 208
WIRE 16 288 -128 288
WIRE 160 288 160 256
WIRE 160 288 16 288
WIRE 16 304 16 288
FLAG 16 304 0
SYMBOL Contrib\\Toshiba\\bjt\\TTD1409B 96 64 R0
SYMATTR InstName U1
SYMBOL res 0 112 R0
SYMATTR InstName R1
SYMATTR Value 900
SYMBOL res 0 0 R0
SYMATTR InstName R2
SYMATTR Value 100
SYMBOL res 144 160 R0
SYMATTR InstName R3
SYMATTR Value 1
SYMBOL voltage -128 80 R0
WINDOW 123 0 0 Left 0
WINDOW 39 0 0 Left 0
SYMATTR InstName V1
SYMATTR Value 30
SYMBOL zener 32 -16 R180
WINDOW 0 24 64 Left 2
WINDOW 3 24 0 Left 2
SYMATTR InstName D1
SYMATTR Value UFZV24B
TEXT -160 304 Left 2 !.tran 40
